/*--------------------------------*- C++ -*----------------------------------*\
| =========                 |                                                 |
| \\      /  F ield         | OpenFOAM: The Open Source CFD Toolbox           |
|  \\    /   O peration     | Version:  v12                                   |
|   \\  /    A nd           | Website:  www.openfoam.org                      |
|    \\/     M anipulation  |                                                 |
\*---------------------------------------------------------------------------*/
FoamFile
{
    format      ascii;
    class       dictionary;
    object      blockMeshDict;
}
// * * * * * * * * * * * * * * * * * * * * * * * * * * * * * * * * * * * * * //

// Domain: 2m (x) x 2.5m (y/height) x 1m (z/depth)
// Server rack zone: 0.6m x 2m x 0.8m centered in domain (defined in setFieldsDict)

scale 1;

// Domain boundaries
xMin 0;
xMax 2;
yMin 0;
yMax 2.5;
zMin 0;
zMax 1;

vertices
(
    ($xMin $yMin $zMin)   // 0
    ($xMax $yMin $zMin)   // 1
    ($xMax $yMax $zMin)   // 2
    ($xMin $yMax $zMin)   // 3
    ($xMin $yMin $zMax)   // 4
    ($xMax $yMin $zMax)   // 5
    ($xMax $yMax $zMax)   // 6
    ($xMin $yMax $zMax)   // 7
);

blocks
(
    // Main block — 135k cells (3× previous 40k mesh)
    // For complex geometry, use snappyHexMesh
    hex (0 1 2 3 4 5 6 7) (60 75 30) simpleGrading (1 1 1)
);

edges
(
);

boundary
(
    inlet
    {
        type patch;
        faces
        (
            (0 4 7 3)  // Left wall (cold aisle CRAC supply)
        );
    }
    
    outlet
    {
        type patch;
        faces
        (
            (1 2 6 5)  // Right wall (hot aisle return)
        );
    }
    
    floor
    {
        type wall;
        faces
        (
            (0 1 5 4)  // Bottom
        );
    }
    
    ceiling
    {
        type wall;
        faces
        (
            (3 7 6 2)  // Top
        );
    }
    
    frontAndBack
    {
        type wall;
        faces
        (
            (0 3 2 1)  // Front (z = 0)
            (4 5 6 7)  // Back (z = 1)
        );
    }
);

// ************************************************************************* //
