/*--------------------------------*- C++ -*----------------------------------*\
| =========                 |                                                 |
| \\      /  F ield         | OpenFOAM: The Open Source CFD Toolbox           |
|  \\    /   O peration     | Version:  12                                    |
|   \\  /    A nd           | Website:  www.openfoam.org                      |
|    \\/     M anipulation  |                                                 |
\*---------------------------------------------------------------------------*/
FoamFile
{
    format      ascii;
    class       volScalarField;
    object      p;
}
// * * * * * * * * * * * * * * * * * * * * * * * * * * * * * * * * * * * * * //

dimensions      [1 -1 -2 0 0 0 0];

internalField   uniform 1e5;

boundaryField
{
    inlet
    {
        type            calculated;
        value           $internalField;
    }
    
    outlet
    {
        type            calculated;
        value           $internalField;
    }
    
    floor
    {
        type            calculated;
        value           $internalField;
    }
    
    ceiling
    {
        type            calculated;
        value           $internalField;
    }
    
    frontAndBack
    {
        type            calculated;
        value           $internalField;
    }
}

// ************************************************************************* //
